Circuit: * E:\Documents\Academico\CESE\PIDS\Spice\BufferInverter.asc

Limiting rise time of source v1 to 0.001
Limiting fall time of source v1 to 0.001
WARNING: Less than two connections to node E3.  This node is used by A3.
Direct Newton iteration for .op point succeeded.

Date: Sun May 16 16:31:28 2021
Total elapsed time: 0.200 seconds.

tnom = 27
temp = 27
method = modified trap
totiter = 37865
traniter = 37852
tranpoints = 14564
accept = 12262
rejected = 2302
matrix size = 7
fillins = 0
solver = Normal
Matrix Compiler1: 160 bytes object code size  1.7/1.6/[1.7]
Matrix Compiler2: 365 bytes object code size  1.7/1.6/[1.7]


